jupyter/notebooks/models/voltage-drop/currDump.csv
# currDump.csv run at 2000-01-01 00:00:00 PST on 675 links
link_name,currA_real,currA_imag,currB_real,currB_imag,currC_real,currC_imag
21003,9.164724,13.855379,11.571095,-7.743261,-32.650181,29.510861
21011,9.164724,13.855379,11.571095,-7.743261,-32.650181,29.510861
68304,0.000000,0.000000,0.000000,0.000000,0.000000,0.000000
68302,0.000000,0.000000,-0.000000,-0.000000,-0.000000,-0.000000
68300,0.000000,0.000000,-0.000000,-0.000000,-0.000000,-0.000000
68298,9.164724,13.855379,11.571095,-7.743261,-32.650181,29.510861
68299,9.164724,13.855379,11.571095,-7.743261,-32.650181,29.510861
R1182,9.164724,13.855379,11.571095,-7.743261,-32.650181,29.510861
20944,9.164724,13.855379,11.571095,-7.743261,-32.650181,29.510861
20837,9.164724,13.855379,11.571095,-7.743261,-32.650181,29.510861
20881,9.164724,13.855379,11.571095,-7.743261,-32.650181,29.510861
20445,9.164724,13.855379,11.571095,-7.743261,-32.650181,29.510861
20549,9.164724,13.855379,11.571095,-7.743261,-32.650181,29.510861
20369,9.164724,13.855379,11.571095,-7.743261,-32.650181,29.510861
20506,9.164724,13.855379,11.571095,-7.743261,-32.650181,29.510861
20367,8.934361,13.863828,11.571095,-7.743261,-31.477878,27.463624
T62463027880,0.000000,0.000000,-0.007887,-0.012284,0.000000,0.000000
20286,8.934361,13.863828,11.578982,-7.730978,-31.477878,27.463624
20248,8.283707,13.876777,11.775761,-7.403599,-27.567449,20.629362
20145,8.283707,13.876777,11.775761,-7.403599,-27.567449,20.629362
20129,0.028437,-0.000716,0.000000,0.000000,0.000000,0.000000
F8944,0.028437,-0.000716,0.000000,0.000000,0.000000,0.000000
20130,0.028437,-0.000716,0.000000,0.000000,0.000000,0.000000
T62463023775,0.028437,-0.000716,0.000000,0.000000,0.000000,0.000000
20050,8.255271,13.877493,11.775761,-7.403599,-27.567449,20.629362
T62463022676,0.000000,0.000000,-0.007884,-0.012284,0.000000,0.000000
19663,8.255271,13.877493,11.783645,-7.391316,-27.567449,20.629362
T62463021663,0.000000,0.000000,0.000000,0.000000,-0.006652,0.013007
19935,8.255271,13.877493,11.783645,-7.391316,-26.910699,19.479046
T62463020670,0.000000,0.000000,-0.007883,-0.012283,0.000000,0.000000
19597,8.255271,13.877493,11.791529,-7.379032,-26.910699,19.479046
19852,8.255271,13.877493,11.829046,-7.318126,-26.910699,19.479046
T62463019414,0.014559,-0.000711,0.000000,0.000000,0.000000,0.000000
19850,0.000000,0.000000,0.000000,0.000000,-0.104580,0.184232
F7573,0.000000,0.000000,0.000000,0.000000,-0.104580,0.184232
19851,0.000000,0.000000,0.000000,0.000000,-0.104580,0.184232
T62463019467,0.000000,0.000000,0.000000,0.000000,-0.104580,0.184232
19848,0.000000,0.000000,0.000000,0.000000,-0.812661,1.424869
F7944,0.000000,0.000000,0.000000,0.000000,-0.812661,1.424869
19849,0.000000,0.000000,0.000000,0.000000,-0.812661,1.424869
19592,0.000000,0.000000,0.000000,0.000000,-0.812661,1.424869
19964,0.000000,0.000000,0.000000,0.000000,-0.812661,1.424869
T62463022289,0.000000,0.000000,0.000000,0.000000,-0.113980,0.200695
20061,0.000000,0.000000,0.000000,0.000000,-0.698681,1.224174
20132,0.000000,0.000000,0.000000,0.000000,-0.698681,1.224174
T62463024257,0.000000,0.000000,0.000000,0.000000,-0.698681,1.224174
19837,0.301569,-0.010756,0.000000,0.000000,0.000000,0.000000
F7582,0.301569,-0.010756,0.000000,0.000000,0.000000,0.000000
19770,0.301569,-0.010756,0.000000,0.000000,0.000000,0.000000
T62463017479,0.014559,-0.000711,0.000000,0.000000,0.000000,0.000000
19750,0.028423,-0.000726,0.000000,0.000000,0.000000,0.000000
T62463017451,0.028423,-0.000726,0.000000,0.000000,0.000000,0.000000
19583,0.258587,-0.009319,0.000000,0.000000,0.000000,0.000000
T62463015557,0.028423,-0.000726,0.000000,0.000000,0.000000,0.000000
19342,0.029118,-0.001422,0.000000,0.000000,0.000000,0.000000
T62463013576,0.014559,-0.000711,0.000000,0.000000,0.000000,0.000000
19399,0.014559,-0.000711,0.000000,0.000000,0.000000,0.000000
T62463012540,0.014559,-0.000711,0.000000,0.000000,0.000000,0.000000
19584,0.201046,-0.007171,0.000000,0.000000,0.000000,0.000000
19483,0.042982,-0.001437,0.000000,0.000000,0.000000,0.000000
T62463014734,0.028423,-0.000726,0.000000,0.000000,0.000000,0.000000
19474,0.014559,-0.000711,0.000000,0.000000,0.000000,0.000000
T62463013737,0.014559,-0.000711,0.000000,0.000000,0.000000,0.000000
18573,0.143506,-0.005023,0.000000,0.000000,0.000000,0.000000
T62463016837,0.014559,-0.000711,0.000000,0.000000,0.000000,0.000000
19688,0.128947,-0.004312,0.000000,0.000000,0.000000,0.000000
T62474196023,0.028423,-0.000726,0.000000,0.000000,0.000000,0.000000
19558,0.100523,-0.003586,0.000000,0.000000,0.000000,0.000000
T62474196103,0.014559,-0.000711,0.000000,0.000000,0.000000,0.000000
19560,0.071405,-0.002163,0.000000,0.000000,0.000000,0.000000
T62474196213,0.028423,-0.000726,0.000000,0.000000,0.000000,0.000000
19683,0.028423,-0.000726,0.000000,0.000000,0.000000,0.000000
T62474196353,0.028423,-0.000726,0.000000,0.000000,0.000000,0.000000
19682,0.014559,-0.000711,0.000000,0.000000,0.000000,0.000000
T62474197215,0.014559,-0.000711,0.000000,0.000000,0.000000,0.000000
19559,0.014559,-0.000711,0.000000,0.000000,0.000000,0.000000
T62474197105,0.014559,-0.000711,0.000000,0.000000,0.000000,0.000000
18572,0.014559,-0.000711,0.000000,0.000000,0.000000,0.000000
T62463016634,0.014559,-0.000711,0.000000,0.000000,0.000000,0.000000
19815,7.939143,13.888960,11.829046,-7.318126,-25.993458,17.869945
T62463018249,0.000000,0.000000,-0.007881,-0.012283,0.000000,0.000000
19816,0.000000,0.000000,0.000000,0.000000,-0.571372,1.002661
F5815,0.000000,0.000000,0.000000,0.000000,-0.571372,1.002661
19563,0.000000,0.000000,0.000000,0.000000,-0.571372,1.002661
T62463019253,0.000000,0.000000,0.000000,0.000000,-0.312481,0.548235
19237,0.000000,0.000000,0.000000,0.000000,-0.258892,0.454425
T62463021200,0.000000,0.000000,0.000000,0.000000,-0.258892,0.454425
19765,7.939143,13.888960,11.836927,-7.305843,-25.422085,16.867284
19748,7.939143,13.888960,11.836927,-7.305843,-24.516114,15.277864
T62463017045,0.000000,0.000000,-0.007880,-0.012282,0.000000,0.000000
19740,0.029108,-0.001430,0.000000,0.000000,0.000000,0.000000
F7585,0.029108,-0.001429,0.000000,0.000000,0.000000,0.000000
19714,0.029108,-0.001429,0.000000,0.000000,0.000000,0.000000
T62463016077,0.014554,-0.000715,0.000000,0.000000,0.000000,0.000000
18588,0.014554,-0.000715,0.000000,0.000000,0.000000,0.000000
19507,0.014554,-0.000715,0.000000,0.000000,0.000000,0.000000
T62463014050,0.014554,-0.000715,0.000000,0.000000,0.000000,0.000000
19561,0.028413,-0.000733,0.000000,0.000000,0.000000,0.000000
T62463016201,0.028413,-0.000733,0.000000,0.000000,0.000000,0.000000
19731,7.881622,13.891122,11.844807,-7.293561,-24.516114,15.277864
58017,0.426512,-0.001322,-0.000000,-0.000000,0.000000,-0.000000
F7586,0.426512,-0.001322,-0.000000,-0.000000,0.000000,-0.000000
58021,0.426512,-0.001322,-0.000000,-0.000000,0.000000,0.000000
T62463078922,0.426512,-0.001322,0.000000,0.000000,0.000000,0.000000
19589,7.455110,13.892444,11.844807,-7.293561,-24.516114,15.277864
T62463076899,0.000000,0.000000,-0.021740,-0.036336,0.000000,0.000000
19538,7.455110,13.892444,11.866546,-7.257225,-24.516114,15.277864
19582,0.028404,-0.000740,0.000000,0.000000,0.000000,0.000000
F7587,0.028404,-0.000740,0.000000,0.000000,0.000000,0.000000
19196,0.028404,-0.000740,0.000000,0.000000,0.000000,0.000000
19519,0.028404,-0.000740,0.000000,0.000000,0.000000,0.000000
T62463074775,0.028404,-0.000740,0.000000,0.000000,0.000000,0.000000
19186,7.426706,13.893184,11.866546,-7.257225,-24.516114,15.277864
19501,7.426706,13.893184,11.866546,-7.257225,-24.516114,15.277864
19345,7.426706,13.893184,11.866546,-7.257225,-24.200371,14.722089
19344,0.000000,0.000000,0.000000,0.000000,-1.077156,1.899517
F7589,0.000000,0.000000,0.000000,0.000000,-1.077156,1.899517
19353,0.000000,0.000000,0.000000,0.000000,-1.077156,1.899517
T62463074165,0.000000,0.000000,0.000000,0.000000,-0.185277,0.326890
19512,0.000000,0.000000,0.000000,0.000000,-0.891878,1.572626
T62463074161,0.000000,0.000000,0.000000,0.000000,-0.203323,0.358606
19511,0.000000,0.000000,0.000000,0.000000,-0.688555,1.214020
19202,0.000000,0.000000,0.000000,0.000000,-0.374713,0.661145
19705,0.000000,0.000000,0.000000,0.000000,-0.374713,0.661145
19733,0.000000,0.000000,0.000000,0.000000,-0.374713,0.661145
19793,0.000000,0.000000,0.000000,0.000000,-0.200197,0.353139
19573,0.000000,0.000000,0.000000,0.000000,-0.200197,0.353139
T62463079127,0.000000,0.000000,0.000000,0.000000,-0.200197,0.353139
19792,0.000000,0.000000,0.000000,0.000000,-0.174516,0.308005
T62463139950,0.000000,0.000000,0.000000,0.000000,-0.174516,0.308005
19198,0.000000,0.000000,0.000000,0.000000,-0.313842,0.552876
T62463075133,0.000000,0.000000,0.000000,0.000000,-0.313842,0.552876
19384,7.412161,13.893906,11.866546,-7.257225,-23.123216,12.822573
T62463072031,0.000000,0.000000,-0.007874,-0.012280,0.000000,0.000000
70924,7.412161,13.893906,11.874421,-7.244946,-23.123216,12.822573
70925,7.412161,13.893906,11.874421,-7.244946,-23.123216,12.822573
SW1250-Bx1,7.412161,13.893906,11.874421,-7.244945,-23.123216,12.822573
SW1250-Ax1,7.412161,13.893906,11.874421,-7.244946,-23.123216,12.822573
19281,7.412161,13.893906,11.874421,-7.244946,-23.123216,12.822573
19089,7.412161,13.893906,11.874421,-7.244946,-23.123216,12.822573
T62463130794,0.014539,-0.000727,0.000000,0.000000,0.000000,0.000000
19165,7.397622,13.894634,11.874421,-7.244946,-23.123216,12.822573
19009,7.397622,13.894634,11.874421,-7.244946,-23.123216,12.822573
18754,7.397622,13.894634,11.874421,-7.244946,-23.123216,12.822573
18753,7.397622,13.894634,11.874421,-7.244946,-23.123216,12.822573
18752,0.302408,-0.012598,-0.021711,-0.036319,-0.000000,-0.000000
T62463129146,0.000000,0.000000,-0.021711,-0.036319,0.000000,0.000000
19041,0.302408,-0.012598,0.000000,0.000000,-0.000000,-0.000000
19095,0.086501,-0.003699,0.000000,0.000000,0.000000,0.000000
F8245,0.086501,-0.003699,0.000000,0.000000,0.000000,0.000000
19103,0.086501,-0.003699,0.000000,0.000000,0.000000,0.000000
T62463131250,0.014533,-0.000733,0.000000,0.000000,0.000000,0.000000
19284,0.071969,-0.002966,0.000000,0.000000,0.000000,0.000000
19297,0.071969,-0.002966,0.000000,0.000000,0.000000,0.000000
19329,0.057436,-0.002233,0.000000,0.000000,0.000000,0.000000
19340,0.057436,-0.002233,0.000000,0.000000,0.000000,0.000000
19386,0.042903,-0.001500,0.000000,0.000000,0.000000,0.000000
T62463133761,0.014533,-0.000733,0.000000,0.000000,0.000000,0.000000
19341,0.028370,-0.000767,0.000000,0.000000,0.000000,0.000000
19521,0.028370,-0.000767,0.000000,0.000000,0.000000,0.000000
T62463134578,0.028370,-0.000767,0.000000,0.000000,0.000000,0.000000
19316,0.000000,0.000000,0.000000,0.000000,0.000000,0.000000
57963,0.000000,0.000000,0.000000,0.000000,0.000000,0.000000
19387,0.014533,-0.000733,0.000000,0.000000,0.000000,0.000000
T62463133818,0.014533,-0.000733,0.000000,0.000000,0.000000,0.000000
19328,0.014533,-0.000733,0.000000,0.000000,0.000000,0.000000
T62463132499,0.014533,-0.000733,0.000000,0.000000,0.000000,0.000000
19094,0.014533,-0.000733,0.000000,0.000000,-0.000000,0.000000
T62463132037,0.014533,-0.000733,0.000000,0.000000,0.000000,0.000000
19393,0.000000,0.000000,-0.000000,-0.000000,-0.000000,-0.000000
19048,0.201374,-0.008166,0.000000,0.000000,0.000000,0.000000
F5007,0.201374,-0.008166,0.000000,0.000000,0.000000,0.000000
19049,0.201374,-0.008166,0.000000,0.000000,0.000000,0.000000
18949,0.186841,-0.007433,0.000000,0.000000,0.000000,0.000000
T62463188832,0.028370,-0.000767,0.000000,0.000000,0.000000,0.000000
18948,0.043599,-0.002199,0.000000,0.000000,0.000000,0.000000
T62463189781,0.014533,-0.000733,0.000000,0.000000,0.000000,0.000000
19136,0.029066,-0.001466,0.000000,0.000000,0.000000,0.000000
T62463190598,0.014533,-0.000733,0.000000,0.000000,0.000000,0.000000
19096,0.014533,-0.000733,0.000000,0.000000,0.000000,0.000000
18558,0.014533,-0.000733,0.000000,0.000000,0.000000,0.000000
T62463193504,0.014533,-0.000733,0.000000,0.000000,0.000000,0.000000
18907,0.014533,-0.000733,0.000000,0.000000,0.000000,0.000000
T62463187888,0.014533,-0.000733,0.000000,0.000000,0.000000,0.000000
17950,0.100340,-0.003734,0.000000,0.000000,0.000000,0.000000
18359,0.100340,-0.003734,0.000000,0.000000,0.000000,0.000000
T62463186742,0.028370,-0.000767,0.000000,0.000000,0.000000,0.000000
18330,0.057436,-0.002233,0.000000,0.000000,0.000000,0.000000
18696,0.042903,-0.001500,0.000000,0.000000,0.000000,0.000000
18695,0.042903,-0.001500,0.000000,0.000000,0.000000,0.000000
T62463185453,0.028371,-0.000767,0.000000,0.000000,0.000000,0.000000
18790,0.014533,-0.000733,0.000000,0.000000,0.000000,0.000000
T62463186324,0.014533,-0.000733,0.000000,0.000000,0.000000,0.000000
18329,0.014533,-0.000733,0.000000,0.000000,0.000000,0.000000
T62463186577,0.014533,-0.000733,0.000000,0.000000,0.000000,0.000000
18358,0.014533,-0.000733,0.000000,0.000000,0.000000,0.000000
18893,0.014533,-0.000733,0.000000,0.000000,0.000000,0.000000
18910,0.014533,-0.000733,0.000000,0.000000,0.000000,0.000000
19027,0.014533,-0.000733,0.000000,0.000000,0.000000,0.000000
T62463189482,0.014533,-0.000733,0.000000,0.000000,0.000000,0.000000
18991,0.014533,-0.000733,0.000000,0.000000,0.000000,0.000000
T62463188978,0.014533,-0.000733,0.000000,0.000000,0.000000,0.000000
18525,7.095213,13.907232,11.896132,-7.208626,-23.123216,12.822573
18823,0.014531,-0.000734,0.000000,0.000000,0.000000,0.000000
F7591,0.014531,-0.000734,0.000000,0.000000,0.000000,0.000000
18675,0.014531,-0.000734,0.000000,0.000000,0.000000,0.000000
18674,0.014531,-0.000734,0.000000,0.000000,0.000000,0.000000
T62463124087,0.014531,-0.000734,0.000000,0.000000,0.000000,0.000000
18630,7.080682,13.907966,11.896132,-7.208626,-23.123216,12.822573
17886,7.080682,13.907966,11.896132,-7.208626,-23.123216,12.822573
T62463123126,0.000000,0.000000,-0.014786,-0.024296,0.000000,0.000000
17815,7.080682,13.907966,11.910918,-7.184330,-23.123216,12.822573
T62463121197,0.000000,0.000000,0.000000,0.000000,-0.239798,0.425123
18225,7.080682,13.907966,11.910918,-7.184330,-22.883418,12.397449
18098,7.066157,13.908705,11.910918,-7.184330,-22.883418,12.397449
18025,0.014524,-0.000741,0.000000,0.000000,0.000000,0.000000
T62462178321,0.014524,-0.000741,0.000000,0.000000,0.000000,0.000000
18094,0.000000,0.000000,0.000000,0.000000,-0.462655,0.822638
F7598,0.000000,0.000000,0.000000,0.000000,-0.462655,0.822638
17654,0.000000,0.000000,0.000000,0.000000,-0.462655,0.822638
T62462237996,0.000000,0.000000,0.000000,0.000000,-0.247373,0.439010
17998,0.000000,0.000000,0.000000,0.000000,-0.215282,0.383628
T62462237964,0.000000,0.000000,0.000000,0.000000,-0.006583,0.013050
17773,0.000000,0.000000,0.000000,0.000000,-0.208699,0.370577
T62462236981,0.000000,0.000000,0.000000,0.000000,-0.208699,0.370577
17756,7.051633,13.909446,11.910918,-7.184330,-22.420763,11.574811
17535,7.051633,13.909446,11.910918,-7.184330,-22.420763,11.574811
16557,5.004205,13.917992,11.910918,-7.184330,-15.985486,0.124391
68062,0.411921,-0.012516,-0.105307,-0.170606,-2.122972,3.779461
R1201,0.411921,-0.012516,-0.105307,-0.170606,-2.122972,3.779461
68063,0.411922,-0.012516,-0.105307,-0.170606,-2.122972,3.779461
16564,0.411922,-0.012516,-0.105307,-0.170606,-2.122972,3.779461
17443,0.397403,-0.011771,-0.097444,-0.158333,-2.122972,3.779461
17563,0.397403,-0.011771,-0.097444,-0.158333,-2.122972,3.779461
17391,0.397403,-0.011771,-0.097444,-0.158333,-2.122972,3.779461
17699,0.397403,-0.011771,-0.097444,-0.158333,-2.122972,3.779461
17720,0.397403,-0.011771,-0.097444,-0.158333,-2.122972,3.779461
17643,0.397403,-0.011771,-0.097444,-0.158333,-2.122972,3.779461
17783,0.397403,-0.011771,-0.097444,-0.158333,-2.122972,3.779461
18177,0.397403,-0.011771,-0.097444,-0.158333,-2.122972,3.779461
18206,0.397403,-0.011771,-0.097444,-0.158333,-2.122972,3.779461
17903,0.397403,-0.011771,-0.097444,-0.158333,-2.122972,3.779461
18265,0.397403,-0.011771,-0.097444,-0.158333,-2.122972,3.779461
57854,0.397403,-0.011771,-0.097444,-0.158333,-2.122972,3.779461
F5187,0.397403,-0.011771,-0.097444,-0.158333,-2.122972,3.779461
57850,0.397403,-0.011771,-0.097444,-0.158333,-2.122972,3.779461
57837,0.114042,-0.003860,-0.007862,-0.012277,-0.000000,0.000000
T62463000400,0.028337,-0.000790,0.000000,0.000000,0.000000,0.000000
57838,0.085706,-0.003070,0.000000,0.000000,0.000000,0.000000
T62463000511,0.014516,-0.000745,0.000000,0.000000,0.000000,0.000000
57836,0.071190,-0.002325,0.000000,0.000000,0.000000,0.000000
T62463000610,0.042157,-0.000835,0.000000,0.000000,0.000000,0.000000
57843,0.029032,-0.001490,0.000000,0.000000,0.000000,0.000000
T62463000688,0.014516,-0.000745,0.000000,0.000000,0.000000,0.000000
57835,0.014516,-0.000745,0.000000,0.000000,0.000000,0.000000
T62462059787,0.014516,-0.000745,0.000000,0.000000,0.000000,0.000000
57833,-0.000000,0.000000,-0.007862,-0.012277,-0.000000,0.000000
T62462058491,0.000000,0.000000,-0.007862,-0.012277,0.000000,0.000000
57794,0.000000,-0.000000,-0.000000,-0.000000,0.000000,0.000000
57790,0.000000,0.000000,0.000000,0.000000,0.000000,0.000000
57851,0.283360,-0.007912,-0.089582,-0.146056,-2.122972,3.779461
F7167,0.283360,-0.007912,-0.089582,-0.146056,-2.122972,3.779461
57808,0.283360,-0.007912,-0.089582,-0.146056,-2.122972,3.779461
57856,-0.000000,-0.000000,-0.000000,0.000000,-0.000000,-0.000000
SW1064-Bx1,0.000000,0.000000,0.000000,0.000000,0.000000,0.000000
SW1064-Ax1,0.000000,0.000000,0.000000,0.000000,0.000000,0.000000
57810,0.099520,-0.003121,-0.081720,-0.133778,-2.122972,3.779461
F6171,0.099520,-0.003121,-0.081720,-0.133778,-2.122972,3.779461
57811,0.099520,-0.003121,-0.081720,-0.133778,-2.122972,3.779461
57819,0.099520,-0.003121,-0.081720,-0.133778,-2.122972,3.779461
57880,0.057365,-0.002284,-0.081720,-0.133778,-2.122972,3.779461
T62463002948,0.000000,0.000000,-0.021684,-0.036321,0.000000,0.000000
57857,0.057365,-0.002284,-0.060036,-0.097457,-2.122972,3.779461
T62474181036,0.000000,0.000000,0.000000,0.000000,-0.547924,0.974468
57849,0.000000,0.000000,0.000000,0.000000,-0.759716,1.353243
57844,0.000000,0.000000,0.000000,0.000000,-0.759716,1.353243
T62463000829,0.000000,0.000000,0.000000,0.000000,-0.006577,0.013081
57846,0.000000,0.000000,0.000000,0.000000,-0.753140,1.340162
72108,0.000000,0.000000,0.000000,0.000000,-0.753140,1.340162
T62463001814,0.000000,0.000000,0.000000,0.000000,-0.506830,0.901497
57821,0.000000,0.000000,0.000000,0.000000,-0.246310,0.438666
T62463001769,0.000000,0.000000,0.000000,0.000000,-0.246310,0.438666
57845,0.057365,-0.002284,-0.060036,-0.097457,-0.815331,1.451750
T62474180122,0.028335,-0.000792,0.000000,0.000000,0.000000,0.000000
57825,0.029030,-0.001492,-0.060036,-0.097457,-0.815331,1.451750
57806,0.029030,-0.001492,-0.060036,-0.097457,-0.522790,0.931000
T62473238073,0.000000,0.000000,-0.014772,-0.024300,0.000000,0.000000
57824,0.000000,0.000000,-0.015721,-0.024556,0.000000,0.000000
T62473238126,0.000000,0.000000,-0.007861,-0.012278,0.000000,0.000000
57823,0.000000,0.000000,-0.007861,-0.012278,0.000000,0.000000
72522,0.000000,0.000000,-0.007861,-0.012278,0.000000,0.000000
T62473238283,0.000000,0.000000,-0.007861,-0.012278,0.000000,0.000000
57827,0.029030,-0.001492,-0.029543,-0.048600,-0.522790,0.931000
T62462058961,0.014515,-0.000746,0.000000,0.000000,0.000000,0.000000
57830,0.014515,-0.000746,-0.029543,-0.048600,-0.522790,0.931000
57829,0.014515,-0.000746,-0.029543,-0.048600,-0.387065,0.688692
T62462058764,0.000000,0.000000,-0.014772,-0.024300,0.000000,0.000000
57803,0.014515,-0.000746,-0.014771,-0.024300,-0.387065,0.688692
T62462057695,0.014515,-0.000746,0.000000,0.000000,0.000000,0.000000
57801,0.000000,-0.000000,-0.014771,-0.024300,-0.387065,0.688692
T62462057585,0.000000,0.000000,0.000000,0.000000,-0.387065,0.688692
57800,-0.000000,0.000000,-0.014771,-0.024300,-0.000000,-0.000000
T62462057478,0.000000,0.000000,-0.014771,-0.024300,0.000000,0.000000
T62462058873,0.000000,0.000000,0.000000,0.000000,-0.135725,0.242308
T62473239069,0.000000,0.000000,0.000000,0.000000,-0.292542,0.520750
T62463003904,0.042155,-0.000837,0.000000,0.000000,0.000000,0.000000
57809,0.183840,-0.004791,-0.007862,-0.012277,-0.000000,0.000000
SW1139-Bx1,0.183840,-0.004791,-0.007862,-0.012277,-0.000000,0.000000
SW1139-Ax1,0.183840,-0.004791,-0.007862,-0.012277,-0.000000,0.000000
57864,0.183840,-0.004791,-0.007862,-0.012277,-0.000000,0.000000
57879,0.183840,-0.004791,-0.007862,-0.012277,-0.000000,0.000000
57817,0.183840,-0.004791,-0.007862,-0.012277,-0.000000,0.000000
57877,0.183840,-0.004791,-0.007862,-0.012277,-0.000000,0.000000
SW1420-Bx1,0.183840,-0.004791,-0.007862,-0.012278,-0.000000,-0.000000
SW1420-Ax1,0.183840,-0.004791,-0.007862,-0.012277,-0.000000,-0.000000
57818,0.183840,-0.004791,-0.007862,-0.012277,-0.000000,-0.000000
18432,0.183840,-0.004791,-0.007862,-0.012277,0.000000,-0.000000
57878,0.169324,-0.004046,0.000000,0.000000,0.000000,0.000000
F6537,0.169324,-0.004046,0.000000,0.000000,0.000000,0.000000
57866,0.169324,-0.004046,0.000000,0.000000,0.000000,0.000000
T62474182459,0.042157,-0.000836,0.000000,0.000000,0.000000,0.000000
57865,0.127167,-0.003209,0.000000,0.000000,0.000000,0.000000
T62474181497,0.014516,-0.000745,0.000000,0.000000,0.000000,0.000000
57858,0.112651,-0.002464,0.000000,0.000000,0.000000,0.000000
T62474181443,0.055978,-0.000882,0.000000,0.000000,0.000000,0.000000
57852,0.056673,-0.001582,0.000000,0.000000,0.000000,0.000000
T62474180389,0.042157,-0.000836,0.000000,0.000000,0.000000,0.000000
57847,0.014516,-0.000745,0.000000,0.000000,0.000000,0.000000
T62474180356,0.014516,-0.000745,0.000000,0.000000,0.000000,0.000000
18374,0.014516,-0.000745,-0.007862,-0.012277,0.000000,-0.000000
17811,0.014516,-0.000745,-0.007862,-0.012277,0.000000,-0.000000
T62474181695,0.000000,0.000000,-0.007862,-0.012277,0.000000,0.000000
17934,0.014516,-0.000745,0.000000,-0.000000,-0.000000,-0.000000
18216,0.014516,-0.000745,0.000000,-0.000000,-0.000000,-0.000000
18217,0.014516,-0.000745,0.000000,-0.000000,-0.000000,-0.000000
17924,0.014516,-0.000745,0.000000,-0.000000,-0.000000,-0.000000
18308,0.014516,-0.000745,0.000000,-0.000000,-0.000000,-0.000000
18326,0.014516,-0.000745,-0.000000,0.000000,0.000000,-0.000000
18443,0.014516,-0.000745,0.000000,0.000000,0.000000,0.000000
17888,0.014516,-0.000745,0.000000,0.000000,0.000000,0.000000
F7423,0.014516,-0.000745,0.000000,0.000000,0.000000,0.000000
18410,0.014516,-0.000745,0.000000,0.000000,0.000000,0.000000
T62474182678,0.014516,-0.000745,0.000000,0.000000,0.000000,0.000000
18325,0.000000,0.000000,0.000000,-0.000000,-0.000000,-0.000000
18318,-0.000000,-0.000000,0.000000,0.000000,0.000000,0.000000
17361,0.014519,-0.000745,-0.007864,-0.012273,0.000000,-0.000000
T62462172490,0.014519,-0.000745,0.000000,0.000000,0.000000,0.000000
17230,0.000000,0.000000,-0.007864,-0.012273,0.000000,0.000000
T62462172379,0.000000,0.000000,-0.007864,-0.012273,0.000000,0.000000
16552,-0.000000,-0.000000,-0.000000,0.000000,-0.000000,0.000000
17387,0.000000,0.000000,0.000000,0.000000,0.000000,0.000000
17388,-0.000000,-0.000000,-0.000000,0.000000,-0.000000,0.000000
17210,4.592284,13.930508,12.016225,-7.013725,-13.862514,-3.655070
68064,4.592284,13.930508,12.016225,-7.013725,-13.862514,-3.655070
R1202,4.592284,13.930508,12.016225,-7.013725,-13.862514,-3.655070
68065,4.592284,13.930508,12.016225,-7.013725,-13.862514,-3.655070
70558,4.592284,13.930508,12.016225,-7.013725,-13.862514,-3.655070
70559,4.545086,-0.025668,-0.046222,-0.073362,-1.782019,3.165687
17127,0.014517,-0.000747,0.000000,0.000000,0.000000,0.000000
F5269,0.014517,-0.000747,0.000000,0.000000,0.000000,0.000000
17134,0.014517,-0.000747,0.000000,0.000000,0.000000,0.000000
17038,0.014517,-0.000747,0.000000,0.000000,0.000000,0.000000
T62462169245,0.014517,-0.000747,0.000000,0.000000,0.000000,0.000000
16489,4.530568,-0.024921,-0.046222,-0.073362,-1.782019,3.165687
T62462169442,0.000000,0.000000,0.000000,0.000000,-0.324275,0.576049
16792,4.530568,-0.024921,-0.046222,-0.073362,-0.000000,0.000000
16676,4.530568,-0.024921,-0.038360,-0.061092,-0.000000,0.000000
16401,4.530568,-0.024921,-0.038360,-0.061092,-0.000000,0.000000
16246,4.530568,-0.024921,-0.038360,-0.061092,-0.000000,0.000000
T62462162948,0.000000,0.000000,-0.014774,-0.024283,0.000000,0.000000
16149,4.530568,-0.024921,-0.000000,-0.000000,-0.000000,0.000000
15947,4.530568,-0.024921,-0.000000,-0.000000,-0.000000,0.000000
15809,4.530568,-0.024921,-0.000000,-0.000000,-0.000000,0.000000
14973,4.530568,-0.024921,-0.000000,-0.000000,-0.000000,0.000000
15558,4.530568,-0.024921,-0.000000,-0.000000,-0.000000,0.000000
15185,4.530568,-0.024921,-0.000000,-0.000000,-0.000000,0.000000
15040,4.530568,-0.024921,-0.000000,-0.000000,-0.000000,0.000000
68161,4.530568,-0.024921,-0.000000,-0.000000,-0.000000,0.000000
F5552,4.530568,-0.024921,-0.000000,0.000000,0.000000,0.000000
15042,4.530568,-0.024921,-0.000000,-0.000000,0.000000,0.000000
T62462091135,4.530568,-0.024921,0.000000,0.000000,0.000000,0.000000
15048,0.000000,0.000000,-0.000000,-0.000000,0.000000,0.000000
SW1039-Bx1,0.000000,0.000000,-0.000000,0.000000,0.000000,0.000000
SW1039-Ax1,0.000000,-0.000000,-0.000000,-0.000000,-0.000000,0.000000
15051,0.000000,-0.000000,-0.000000,-0.000000,0.000000,0.000000
57731,0.000000,-0.000000,-0.000000,-0.000000,0.000000,0.000000
F5593,0.000000,-0.000000,0.000000,0.000000,0.000000,0.000000
15305,-0.000000,0.000000,-0.000000,0.000000,-0.000000,-0.000000
15028,-0.000000,0.000000,-0.000000,0.000000,-0.000000,-0.000000
14601,-0.000000,0.000000,-0.000000,-0.000000,-0.000000,-0.000000
14763,-0.000000,0.000000,-0.000000,-0.000000,-0.000000,-0.000000
14665,0.000000,-0.000000,0.000000,0.000000,-0.000000,-0.000000
16237,0.000000,0.000000,-0.023586,-0.036809,0.000000,0.000000
F7514,0.000000,0.000000,-0.023586,-0.036809,0.000000,0.000000
16229,0.000000,0.000000,-0.023586,-0.036809,0.000000,0.000000
16209,0.000000,0.000000,-0.023586,-0.036809,0.000000,0.000000
72473,0.000000,0.000000,-0.000000,0.000000,0.000000,0.000000
72474,0.000000,0.000000,-0.000000,-0.000000,0.000000,0.000000
72475,0.000000,0.000000,0.000000,0.000000,0.000000,0.000000
16194,0.000000,0.000000,-0.023586,-0.036809,0.000000,0.000000
T62462101267,0.000000,0.000000,-0.007862,-0.012270,0.000000,0.000000
16109,0.000000,0.000000,-0.007862,-0.012270,0.000000,0.000000
T62462100224,0.000000,0.000000,-0.007862,-0.012270,0.000000,0.000000
15631,0.000000,0.000000,-0.007862,-0.012270,0.000000,0.000000
T62462101338,0.000000,0.000000,-0.007862,-0.012270,0.000000,0.000000
16286,0.000000,0.000000,-0.007862,-0.012270,0.000000,0.000000
57760,0.000000,0.000000,-0.007862,-0.012270,0.000000,0.000000
F7516,0.000000,0.000000,-0.007862,-0.012270,0.000000,0.000000
57765,0.000000,0.000000,-0.007862,-0.012270,0.000000,0.000000
T62462166454,0.000000,0.000000,-0.007862,-0.012270,0.000000,0.000000
16490,0.000000,0.000000,0.000000,0.000000,-1.457745,2.589638
F7517,0.000000,0.000000,0.000000,0.000000,-1.457745,2.589638
17035,0.000000,0.000000,0.000000,0.000000,-1.457745,2.589638
T62462169469,0.000000,0.000000,0.000000,0.000000,-0.302034,0.536641
16309,0.000000,0.000000,0.000000,0.000000,-1.155710,2.052997
17023,0.000000,0.000000,0.000000,0.000000,-1.155710,2.052997
T62462170743,0.000000,0.000000,0.000000,0.000000,-0.299443,0.532102
17147,0.000000,0.000000,0.000000,0.000000,-0.856267,1.520895
57761,0.000000,0.000000,0.000000,0.000000,-0.605161,1.074472
F7515,0.000000,0.000000,0.000000,0.000000,-0.605161,1.074472
57781,0.000000,0.000000,0.000000,0.000000,-0.605161,1.074472
T62462110060,0.000000,0.000000,0.000000,0.000000,-0.605161,1.074472
16738,0.000000,0.000000,0.000000,0.000000,-0.251106,0.446423
T62462168870,0.000000,0.000000,0.000000,0.000000,-0.251106,0.446423
17189,0.000000,0.000000,0.000000,0.000000,0.000000,0.000000
17205,-0.000000,-0.000000,-0.000000,0.000000,0.000000,0.000000
17188,0.000000,0.000000,0.000000,0.000000,0.000000,0.000000
17422,2.047428,-0.008546,0.000000,0.000000,-6.435278,11.450421
T62462173272,2.047428,-0.008546,0.000000,0.000000,0.000000,0.000000
17095,-0.000000,-0.000000,0.000000,0.000000,0.000000,-0.000000
SW1421-Bx1,-0.000000,-0.000000,0.000000,0.000000,-0.000000,-0.000000
SW1421-Ax1,-0.000000,-0.000000,0.000000,-0.000000,0.000000,0.000000
17091,-0.000000,-0.000000,-0.000000,0.000000,-0.000000,-0.000000
57769,-0.000000,-0.000000,0.000000,0.000000,-0.000000,-0.000000
F5640,0.000000,-0.000000,0.000000,0.000000,0.000000,0.000000
17421,0.000000,0.000000,0.000000,0.000000,-6.435278,11.450421
67782,0.000000,0.000000,0.000000,0.000000,-6.435278,11.450421
R1203,0.000000,0.000000,0.000000,0.000000,-6.435278,11.450421
67783,0.000000,0.000000,0.000000,0.000000,-6.435278,11.450421
17105,0.000000,0.000000,0.000000,0.000000,-6.435278,11.450421
17366,0.000000,0.000000,0.000000,0.000000,-1.581633,2.817969
17231,0.000000,0.000000,0.000000,0.000000,-1.581633,2.817969
17279,0.000000,0.000000,0.000000,0.000000,-1.581633,2.817969
17143,0.000000,0.000000,0.000000,0.000000,-1.581633,2.817969
16894,0.000000,0.000000,0.000000,0.000000,-1.581633,2.817969
16074,0.000000,0.000000,0.000000,0.000000,-1.581633,2.817969
16678,0.000000,0.000000,0.000000,0.000000,-1.209974,2.157620
16390,0.000000,0.000000,0.000000,0.000000,-1.209974,2.157620
T62462223734,0.000000,0.000000,0.000000,0.000000,-0.006812,0.013483
14901,0.000000,0.000000,0.000000,0.000000,-1.203162,2.144137
T62462222618,0.000000,0.000000,0.000000,0.000000,-0.007675,0.015013
16222,0.000000,0.000000,0.000000,0.000000,-0.194545,0.349086
F8885,0.000000,0.000000,0.000000,0.000000,-0.194545,0.349086
16223,0.000000,0.000000,0.000000,0.000000,-0.194545,0.349086
T62462222900,0.000000,0.000000,0.000000,0.000000,-0.154038,0.274472
16213,0.000000,0.000000,0.000000,0.000000,-0.040507,0.074614
16204,0.000000,0.000000,0.000000,0.000000,-0.033931,0.061549
T62462161089,0.000000,0.000000,0.000000,0.000000,-0.033931,0.061549
T62462221998,0.000000,0.000000,0.000000,0.000000,-0.006576,0.013065
16100,0.000000,0.000000,0.000000,0.000000,-0.795719,1.413419
T62462220516,0.000000,0.000000,0.000000,0.000000,-0.795719,1.413419
15632,0.000000,0.000000,0.000000,0.000000,-0.205222,0.366619
16021,0.000000,0.000000,0.000000,0.000000,-0.205222,0.366619
15141,0.000000,0.000000,0.000000,0.000000,-0.205222,0.366619
T62462219856,0.000000,0.000000,0.000000,0.000000,-0.043831,0.079097
...